10
	Energy:       2.4646090
C         -3.84157        2.86188       -0.26641
C         -2.53734        3.40136        0.24096
C         -2.46408        4.91042        0.01175
H         -2.52999        5.14765       -1.07216
H         -1.50381        5.30559        0.40623
H         -3.29762        5.41957        0.54170
N         -1.42181        2.73327       -0.42314
H         -2.47061        3.20490        1.33259
H         -1.47863        2.90639       -1.45412
O         -4.11197        1.67722       -0.15023
