23
	Energy:      10.2042613
C         -2.69877        3.81454       -1.07444
C         -1.35687        4.11578       -0.47717
N         -1.50809        4.39270        0.94778
H         -0.58312        4.70226        1.32603
O         -3.60134        4.63488       -1.02417
C         -0.37275        2.95280       -0.71008
H         -0.95456        5.02270       -0.98066
C         -0.81413        1.63747       -0.04387
H         -0.26183        2.79151       -1.80541
H          0.62154        3.24559       -0.30633
C          0.20540        0.52161       -0.30255
H         -0.91081        1.78947        1.05329
H         -1.79994        1.32312       -0.45031
N         -0.21061       -0.71845        0.32378
H          1.19159        0.82684        0.11078
H          0.29990        0.36282       -1.39910
C          0.56230       -1.91707        0.23440
H         -1.09614       -0.74234        0.85368
N          0.14578       -2.99192        0.80796
H          0.69440       -3.86276        0.75043
H         -0.74051       -3.00422        1.33386
N          1.78980       -1.94878       -0.47936
H          2.17723       -1.12490       -0.95896
