14
	Energy:       8.0122276
C         -3.45208        5.73090       -0.52975
C         -2.50357        4.57476       -0.64979
N         -1.24250        4.94490       -0.01145
H         -0.49751        4.26304       -0.27539
O         -3.79721        6.15384        0.56292
C         -3.11863        3.31612        0.00189
H         -2.34003        4.39578       -1.73508
C         -2.32741        2.04122       -0.19378
H         -4.12420        3.14135       -0.44034
H         -3.24315        3.49787        1.09208
N         -2.77683        0.88749        0.35139
H         -3.64778        0.87085        0.90218
H         -2.25388        0.00837        0.22344
O         -1.29549        2.03204       -0.84843
