10
	Energy:      10.7571907
C         -2.57578        3.84371        0.00000
C         -1.17624        3.84597        0.00000
C         -3.27275        2.63219        0.00000
C         -0.47571        2.63651        0.00000
C         -2.57282        1.42229        0.00000
C         -1.17207        1.42456        0.00000
H         -3.12337        4.77628       -0.00000
H         -0.63117        4.78007        0.00000
H         -3.12189        0.49013        0.00000
H         -0.62043        0.49397        0.00000
