11
	Energy:       9.0648876
C         -3.39938        5.09716       -1.15549
C         -2.15307        4.38707       -0.71201
N         -1.42107        5.24869        0.20951
H         -0.49913        4.80252        0.42318
O         -4.25360        5.43325       -0.35004
C         -2.47694        3.04456       -0.03752
H         -1.52284        4.20275       -1.60946
S         -3.32187        1.91756       -1.19539
H         -3.11754        3.20869        0.85576
H         -1.52034        2.56879        0.26838
H         -3.10873        0.79808       -0.36870
