15
	Energy:       5.3755853
C         -3.25397        5.59967        0.42116
C         -2.29206        4.58457       -0.11695
N         -0.98058        4.84658        0.46557
H         -0.25507        4.32873       -0.08044
O         -3.83427        6.37009       -0.32713
C         -2.79267        3.17307        0.24258
H         -2.23442        4.69001       -1.22462
C         -1.90006        2.05981       -0.32523
H         -2.85427        3.06951        1.34936
H         -3.81506        3.04681       -0.18016
C         -2.45126        0.70358        0.00368
H         -0.87855        2.13103        0.10342
H         -1.83937        2.16156       -1.43047
O         -1.86759       -0.29883       -0.37539
H         -3.36725        0.59759        0.57747
