8
	Energy:       5.3639160
C         -4.07241        4.59651       -0.06096
O         -3.91893        5.80202       -0.18387
C         -2.91031        3.65867        0.08792
N         -1.63760        4.37269        0.06230
H         -2.93899        2.91214       -0.73306
H         -3.01459        3.12660        1.05632
H         -1.50275        4.80203       -0.88223
H         -0.86687        3.68262        0.21150
