17
	Energy:      41.5488165
C         -3.32789        5.17098       -0.41861
C         -2.01385        4.45300       -0.46182
N         -1.06299        5.18172        0.37467
H         -0.09533        4.83341        0.19728
O         -3.41971        6.32667       -0.80118
C         -2.21350        3.01226        0.04714
H         -1.66411        4.43892       -1.51823
C         -1.00115        2.12910       -0.08254
H         -3.02559        2.53102       -0.54133
H         -2.52644        3.04423        1.11406
C         -0.93744        0.81162        0.31753
N          0.18346        2.48821       -0.61912
C          0.94848        1.38141       -0.52963
N          0.29109        0.35161        0.03449
H          1.97278        1.32829       -0.87397
H          0.66020       -0.60825        0.21362
H         -1.72525        0.23088        0.77954
