19
	Energy:      11.6441140
C         -3.69425        4.15065        0.32712
C         -2.31580        3.87511       -0.22495
N         -1.38547        4.92197        0.20150
H         -1.27612        4.88449        1.24193
O         -3.92374        5.10719        1.05138
C         -1.79986        2.46812        0.19606
H         -2.38794        3.91366       -1.33324
C         -0.38215        2.23935       -0.36704
H         -0.39617        2.25259       -1.47798
H          0.03962        1.27486       -0.02187
H          0.31529        3.02614       -0.01133
C         -2.77624        1.35862       -0.28367
H         -1.74278        2.43442        1.30740
C         -2.39253       -0.04847        0.17990
H         -3.78821        1.55820        0.12859
H         -2.84785        1.36926       -1.39333
H         -2.33223       -0.08508        1.28831
H         -1.42686       -0.37387       -0.25535
H         -3.16784       -0.76903       -0.15618
