19
	Energy:      10.8066401
C         -2.65417        5.49161       -0.54557
C         -1.75819        4.28442       -0.52466
N         -0.53123        4.61781        0.18932
H         -0.02307        5.35827       -0.34786
O         -3.05935        5.99408        0.49128
C         -2.48624        3.09528        0.13824
H         -1.52092        4.02036       -1.57834
C         -1.77418        1.72133        0.01837
H         -3.46501        2.99026       -0.38276
H         -2.69411        3.32817        1.20663
C         -2.69376        0.62657        0.58011
H         -2.89636        0.79813        1.65948
H         -2.22379       -0.37308        0.45980
H         -3.66081        0.61461        0.03327
C         -0.42231        1.65851        0.74600
H         -1.60411        1.49848       -1.05827
H          0.01005        0.63899        0.65524
H         -0.54450        1.89817        1.82409
H          0.31600        2.34684        0.29358
