21
	Energy:       9.8904707
C         -3.53301        5.49724        0.10839
C         -2.59822        4.44036       -0.39460
N         -1.24085        4.77485        0.02599
H         -0.56291        4.21436       -0.53896
O         -3.39573        6.66246       -0.22857
C         -3.03538        3.07279        0.16212
H         -2.65471        4.42832       -1.50630
C         -2.16819        1.91290       -0.35101
H         -3.00145        3.09368        1.27453
H         -4.08691        2.88867       -0.15357
C         -2.68567        0.56805        0.17440
H         -1.11896        2.04879       -0.01203
H         -2.19048        1.90265       -1.46302
C         -1.82028       -0.59109       -0.32882
H         -3.73196        0.41538       -0.17090
H         -2.67392        0.57632        1.28662
N         -2.34382       -1.86264        0.15955
H         -1.82797       -0.60159       -1.44086
H         -0.77080       -0.46077        0.01875
H         -1.74511       -2.63383       -0.21480
H         -2.27767       -1.88484        1.20321
