17
	Energy:      16.2307204
C         -3.04050        5.58945        0.24775
C         -2.31716        4.35666       -0.20320
N         -0.93523        4.45180        0.25382
H         -0.35360        3.76140       -0.27333
O         -4.20963        5.77658       -0.05093
C         -3.00585        3.09752        0.36326
H         -2.33818        4.33301       -1.31590
C         -2.35149        1.79542       -0.10851
H         -4.06524        3.09036        0.02285
H         -2.99439        3.13309        1.47544
S         -3.28327        0.37369        0.55455
H         -1.30863        1.74792        0.26878
H         -2.37498        1.76199       -1.21909
C         -2.14292       -0.87543       -0.11821
H         -2.59611       -1.87724        0.02814
H         -1.17464       -0.84491        0.42324
H         -2.00676       -0.73269       -1.21053
