13
	Energy:       6.4001062
C         -3.37278        4.59720       -0.07262
O         -3.84084        5.82351        0.24092
H         -4.75821        6.07514        0.06282
O         -4.11624        3.78044       -0.59776
C         -1.93024        4.26742        0.22638
C         -1.50512        2.84457       -0.17662
H         -1.74882        4.41018        1.31433
H         -1.30063        4.99580       -0.32931
C         -2.27573        1.81723        0.60574
O         -2.09912        0.62439        0.41570
N         -0.07745        2.68698        0.08047
H         -1.69460        2.70498       -1.26451
H          0.23512        1.76714       -0.30832
