11
	Energy:       6.7833594
C         -3.66499        5.26251        0.35962
C         -2.30028        4.85162       -0.10109
N         -1.30811        5.50549        0.74396
H         -0.35650        5.32197        0.35040
O         -4.42669        5.85249       -0.38998
C         -2.16605        3.32533       -0.01056
H         -2.15419        5.17332       -1.15721
O         -0.89773        2.90763       -0.43882
H         -2.95375        2.82519       -0.62038
H         -2.30916        2.99300        1.04055
H         -0.90337        2.95195       -1.43066
