24
	Energy:      56.3635660
C         -2.80299        5.51242       -0.60025
C         -1.88233        4.35076       -0.84665
N         -0.51585        4.83541       -0.98762
H         -0.46428        5.44940       -1.83340
O         -2.66797        6.22530        0.38214
C         -2.00443        3.32131        0.29454
H         -2.19382        3.86276       -1.79655
C         -1.19555        2.07206        0.05614
H         -3.07641        3.02613        0.34271
H         -1.72938        3.75836        1.27886
C         -1.72459        0.82234       -0.25604
N         -0.73315       -0.08266       -0.41007
C          0.41762        0.57352       -0.18576
H         -0.84453       -1.09289       -0.64999
C          0.17914        1.89443        0.10967
C          1.22710        2.76999        0.40829
C          2.53949        2.26487        0.37954
C          2.77916        0.91086        0.06293
C          1.70796        0.04674       -0.22172
H         -2.77549        0.59086       -0.37221
H          1.05077        3.80419        0.66484
H          3.37156        2.91901        0.60541
H          3.79336        0.53365        0.04553
H          1.88085       -0.99540       -0.45735
