21
	Energy:      18.3016661
C         -2.54146        4.52481       -0.64059
C         -2.01040        3.12409       -0.76155
N         -0.55457        3.14976       -0.67544
H         -0.18133        3.68712       -1.49212
O         -2.33864        5.19087        0.36281
C         -2.62085        2.22466        0.33279
H         -2.31309        2.72845       -1.75604
C         -2.22963        0.76736        0.19908
H         -3.72714        2.31104        0.24525
H         -2.33887        2.58803        1.34525
C         -3.20711       -0.19622       -0.10959
C         -2.86149       -1.54545       -0.23030
C         -1.53423       -1.95294       -0.03910
C         -0.55839       -1.00278        0.27553
C         -0.90104        0.34742        0.39599
H         -4.23925        0.09432       -0.26125
H         -3.62665       -2.27257       -0.47162
H          0.46815       -1.31078        0.43009
H         -0.12628        1.05660        0.65189
O         -1.18662       -3.25082       -0.15149
H         -1.83166       -3.93961       -0.36666
